42
ZINC34781666
C         -0.01870        1.52580        0.01040
C          0.00210       -0.00410        0.00200
C          0.91830       -0.55780       -1.12670
H          1.76550        0.11460       -1.26160
N          1.41520       -1.89730       -0.79680
C          1.56390       -2.19610        0.63400
H          1.13130       -3.13480        0.98000
S          0.92260       -0.68000        1.45670
C          3.06730       -2.20150        0.42100
H          3.55740       -3.12230        0.73760
C          2.71290       -2.16780       -1.03580
O          3.35610       -2.32520       -2.05200
N          3.74280       -0.99410        0.90270
C          5.04460       -1.04260        1.24820
O          5.65690       -2.08590        1.16040
C          5.73950        0.19940        1.74370
H          5.40880        1.05830        1.15970
C          5.40110        0.41900        3.19570
C          6.06480       -0.29510        4.17580
C          5.75440       -0.09380        5.50770
C          4.78050        0.82200        5.85960
C          4.11750        1.53680        4.87960
C          4.43090        1.33850        3.54790
N          7.19240        0.03870        1.59850
C          0.13320       -0.62670       -2.41120
O          0.11770        0.32900       -3.16820
O         -0.48640       -1.63810       -2.69350
C         -1.41260       -0.58020       -0.08610
H          1.00390        1.90310        0.00270
H         -0.54590        1.88680       -0.87260
H         -0.52890        1.87730        0.90720
H          3.25310       -0.15970        0.97290
H          6.82560       -1.01070        3.90080
H          6.27240       -0.65220        6.27330
H          4.53750        0.97890        6.90010
H          3.35640        2.25210        5.15460
H          3.91550        1.89970        2.78250
H          7.67790        0.88250        1.86370
H          7.52380       -0.75170        2.13100
H         -1.88430       -0.24550       -1.01000
H         -1.36270       -1.66900       -0.07740
H         -1.99860       -0.23650        0.76620
