43
ZINC19850111
C         -0.01870        1.52580        0.01040
C          0.00210       -0.00410        0.00200
C          0.91830       -0.55780       -1.12670
H          1.76550        0.11460       -1.26160
N          1.41520       -1.89730       -0.79680
C          1.56390       -2.19610        0.63400
H          1.13130       -3.13480        0.98000
S          0.92260       -0.68000        1.45670
C          3.06730       -2.20150        0.42100
H          3.55740       -3.12230        0.73760
C          2.71290       -2.16780       -1.03580
O          3.35610       -2.32520       -2.05200
N          3.74280       -0.99410        0.90270
C          5.04460       -1.04260        1.24820
O          5.65690       -2.08590        1.16040
C          5.73950        0.19940        1.74370
H          5.40880        1.05830        1.15970
C          5.40110        0.41900        3.19570
C          6.06560       -0.29590        4.17500
C          5.75700       -0.09690        5.50670
C          4.77950        0.82160        5.86120
C          4.11450        1.53800        4.87670
C          4.43050        1.33900        3.54670
O          4.47370        1.01900        7.17060
N          7.19240        0.03870        1.59850
C          0.13320       -0.62670       -2.41120
O          0.11770        0.32900       -3.16820
O         -0.48640       -1.63810       -2.69350
C         -1.41260       -0.58020       -0.08610
H          1.00390        1.90310        0.00270
H         -0.54590        1.88680       -0.87260
H         -0.52890        1.87730        0.90720
H          3.25310       -0.15970        0.97290
H          6.82650       -1.01090        3.89860
H          6.27580       -0.65600        6.27120
H          3.35310        2.25360        5.15020
H          3.91610        1.89970        2.78020
H          4.99840        1.71020        7.59710
H          7.52380       -0.75170        2.13100
H          7.45150       -0.04560        0.62690
H         -1.88430       -0.24550       -1.01000
H         -1.36270       -1.66900       -0.07740
H         -1.99860       -0.23650        0.76620
