49
ZINC04215219
C          2.09190       -1.98570        4.61380
C          2.72130       -0.92710        3.98610
C          3.90250       -1.14380        3.35750
S          4.15890       -2.88720        3.64390
C          2.67450       -3.20920        4.58210
C          4.77310       -0.16670        2.61030
C          5.75820        0.45930        3.56360
O          5.75380        0.14310        4.73440
N          6.64420        1.37050        3.11500
C          7.60190        1.97900        4.04170
H          7.80970        1.34590        4.90420
C          8.85800        2.49060        3.35620
H          9.79700        2.30070        3.87620
N          8.22190        3.82260        3.58430
C          7.24940        3.40140        4.41600
O          6.44060        3.93100        5.14840
C          8.55320        5.02480        2.92470
C          9.20110        4.99970        1.77010
C          9.71790        3.81600        1.01920
S          8.91950        2.25130        1.54830
C          9.44920        6.34090        1.12940
N         10.88860        6.61300        1.10780
C         11.44980        7.16590        2.16460
C         12.80380        7.43930        2.18730
C         13.57860        7.12060        1.06790
C         12.94150        6.53540       -0.03050
C         11.58310        6.29230        0.03440
C         15.03410        7.39570        1.04610
O         15.57060        7.90530        2.01000
N         15.76330        7.08080       -0.04270
C          8.17590        6.31540        3.52350
O          8.96950        7.24660        3.52010
O          7.06880        6.45690        4.02450
H          1.15220       -1.83930        5.12560
H          2.27830        0.05780        3.99620
H          2.33030       -4.13780        5.01290
H          5.31320       -0.69060        1.82170
H          4.15010        0.61130        2.16890
H          6.64770        1.62340        2.17850
H          9.53880        3.96540       -0.04560
H         10.79120        3.72930        1.18830
H          9.06570        6.33260        0.10910
H          8.94130        7.11680        1.70220
H         10.84290        7.40880        3.02420
H         13.25690        7.89280        3.05640
H         13.50350        6.27380       -0.91480
H         11.08270        5.83660       -0.80730
H         15.33500        6.67400       -0.81220
H         16.71630        7.26090       -0.05700
