38
ZINC03927198
C          0.00890        1.18510        0.23110
C          0.03740       -0.14900        0.18110
C          1.31810       -0.85110        0.13010
C          1.26140       -2.19590        0.19320
N          2.43060       -2.96360        0.07520
C          3.83070       -2.49350        0.23350
H          4.20050       -2.46170        1.25840
C          4.22960       -3.72380       -0.55320
H          5.00270       -4.32540       -0.07510
C          2.82720       -4.18260       -0.26080
O          2.27100       -5.25930       -0.31240
N          4.49400       -3.46620       -1.97090
C          5.30990       -4.28510       -2.66390
O          5.74960       -5.28970       -2.14060
C          5.67060       -3.96040       -4.06400
N          6.54230       -4.69180       -4.69850
O          7.06370       -5.85930       -4.09020
C          5.04130       -2.80610       -4.74100
C          5.27930       -2.56650       -6.06800
S          4.29070       -1.09920       -6.32470
C          3.66550       -0.95260       -4.65690
N          4.23110       -1.98950       -4.06870
N          2.80930       -0.00370       -4.12370
S          3.94050       -0.89890       -0.64730
C          2.53580        0.00700        0.00820
C         -0.02830       -2.86080        0.38670
O         -0.66090       -3.26380       -0.58160
O         -0.47480       -3.01420        1.51680
H          0.93220        1.74520        0.23390
H         -0.93770        1.70410        0.26430
H         -0.88600       -0.70920        0.17830
H          4.08190       -2.70630       -2.41090
H          7.70320       -6.33570       -4.63710
H          5.89500       -3.11310       -6.76700
H          2.46490        0.70860       -4.68480
H          2.55400       -0.05150       -3.18920
H          2.31210        0.85030       -0.64530
H          2.80380        0.38540        0.99460
