56
ZINC03871924
C         -0.05200        2.61840       -0.48740
N         -1.32030        3.32690       -0.70550
C         -1.16360        4.74850       -0.33070
C         -0.84290        5.47520       -1.66060
C         -1.73930        4.70260       -2.66390
C         -1.68990        3.25520       -2.13100
C         -2.37680        2.71400        0.11070
C         -1.90220        2.58920        1.53550
C         -1.64700        1.35810        1.95500
N         -1.14660        1.14240        3.24670
C         -1.18720        2.08210        4.39970
H         -2.13540        2.10550        4.93680
C         -0.09340        1.28750        5.08890
H         -0.36040        0.92030        6.07980
C         -0.38570        0.31020        3.94810
O         -0.04510       -0.83760        3.75420
N          1.23130        1.91080        5.03630
C          2.15000        1.62190        5.97920
O          1.87940        0.84450        6.87290
C          3.49000        2.25250        5.92600
N          3.78000        3.08610        4.96770
O          5.00590        3.79440        4.99240
C          5.19220        4.67270        3.88060
C          4.49780        1.93550        6.96050
C          5.78970        2.36940        6.82580
S          6.51970        1.71240        8.31970
C          5.04760        0.93380        8.96800
N          4.15910        1.22900        8.03810
N          4.88170        0.21510       10.13990
S         -0.68090        3.70550        3.73650
C         -1.78430        3.86840        2.29870
C         -1.88550        0.21250        1.05860
O         -2.62870       -0.68470        1.40390
H         -0.12670        1.60770       -0.88860
H          0.75340        3.15130       -0.99280
H          0.15840        2.57060        0.58100
H         -2.08950        5.13220        0.09770
H         -0.34070        4.86660        0.37420
H          0.21100        5.37090       -1.91830
H         -1.12850        6.52590       -1.61080
H         -1.32590        4.75680       -3.67100
H         -2.75990        5.08500       -2.64660
H         -0.94170        2.68330       -2.67980
H         -2.66870        2.78740       -2.23720
H         -3.26930        3.33890        0.07840
H         -2.61150        1.72470       -0.28210
H          1.44730        2.53150        4.32280
H          5.17200        4.09680        2.95530
H          4.39290        5.41360        3.86490
H          6.15380        5.17750        3.97350
H          6.24260        2.94920        6.03520
H          5.63440        0.07990       10.73660
H          4.01280       -0.15310       10.36420
H         -1.39260        4.64100        1.63700
H         -2.77400        4.16780        2.64360
O         -1.27930        0.16010       -0.14390
