49
ZINC03830413
C          1.39330       -1.07070       -1.12920
N          1.05390        0.33490       -0.89350
C          1.91000        1.36650       -0.70320
N          1.18050        2.44720       -0.52920
N         -0.06970        2.16180       -0.59770
N         -0.23030        0.90160       -0.81630
S          3.66970        1.27820       -0.69140
C          4.06970        3.01690       -0.38660
C          5.56620        3.18650       -0.33460
C          6.17420        3.32570       -1.50410
N          7.55760        3.54600       -1.55830
C          8.55600        3.28830       -0.48550
H          8.87930        2.25070       -0.40210
C          9.52930        4.21030       -1.19630
H         10.48570        3.74980       -1.44420
C          8.49560        4.13010       -2.29480
O          8.51540        4.48080       -3.45570
N          9.66180        5.53570       -0.58640
C         10.79080        6.24980       -0.76480
O         11.66180        5.83490       -1.50340
C         10.96980        7.54120       -0.06030
N         12.10100        8.18120       -0.15060
O         13.11940        7.70120       -1.00940
C         14.30420        8.50010       -1.00930
C          9.86450        8.10330        0.74530
C          9.97790        9.34800        1.30490
S          8.39710        9.48910        2.12790
C          7.75300        7.89000        1.65710
N          8.74810        7.40290        0.94050
N          6.53150        7.31400        1.96350
S          7.82110        3.95200        1.04780
C          6.17790        3.17050        1.02860
C          5.39210        3.25400       -2.75150
O          5.91920        3.51470       -3.81490
H          1.49280       -1.24570       -2.20040
H          2.33540       -1.30500       -0.63370
H          0.60410       -1.70700       -0.72890
H          3.66230        3.62980       -1.19070
H          3.63540        3.32850        0.56330
H          8.93690        5.89930       -0.05410
H         14.72090        8.53200       -0.00260
H         15.03510        8.06610       -1.69160
H         14.06020        9.51180       -1.33370
H         10.79630       10.05130        1.26000
H          6.31710        6.42730        1.63370
H          5.89040        7.79720        2.50780
H          5.52320        3.70490        1.71710
H          6.27290        2.13720        1.36230
O          4.09240        2.89940       -2.71260
