46
ZINC04468780
C          2.26010       -3.50830        0.06220
C          1.15790       -2.48280       -0.00600
O          1.42960       -1.30750       -0.07450
O         -0.12570       -2.87510        0.00940
C         -1.11840       -1.84940       -0.05810
C         -2.48470       -2.47820       -0.15230
C         -3.50010       -1.63970       -0.29900
N         -4.81270       -2.12070       -0.44490
C         -5.30610       -3.48580       -0.12630
H         -5.58130       -3.65720        0.91440
C         -6.46030       -3.17850       -1.05610
H         -7.44250       -3.36650       -0.62230
C         -5.99320       -1.75480       -0.92250
O         -6.50330       -0.68050       -1.16120
N         -6.30800       -3.73690       -2.40190
C         -7.39760       -3.99160       -3.15310
O         -8.50810       -3.84360       -2.68260
C         -7.24140       -4.45200       -4.55290
N         -8.28860       -4.57920       -5.31760
O         -9.56130       -4.17300       -4.84840
C        -10.61790       -4.36960       -5.79020
C         -5.89700       -4.76710       -5.08190
C         -5.72660       -5.06950       -6.40660
S         -3.96150       -5.34880       -6.46070
C         -3.62990       -5.03830       -4.73230
N         -4.83550       -4.75490       -4.27690
N         -2.42470       -5.07950       -4.05150
S         -4.05020       -4.64370       -0.76990
C         -2.52510       -3.97020       -0.07440
C         -3.25090       -0.18910       -0.30890
O         -2.10360        0.23480       -0.27680
O         -4.19100        0.59290       -0.34930
H          3.22660       -3.00500        0.03820
H          2.16980       -4.07770        0.98720
H          2.18100       -4.18380       -0.78960
H         -1.06380       -1.23140        0.83810
H         -0.94190       -1.23030       -0.93760
H         -5.42290       -3.92340       -2.75230
H        -11.55940       -4.03400       -5.35540
H        -10.41030       -3.79660       -6.69400
H        -10.68990       -5.42820       -6.03970
H         -6.45720       -5.12450       -7.20000
H         -1.60780       -5.30230       -4.52460
H         -2.39750       -4.88560       -3.10140
H         -1.67190       -4.37740       -0.61700
H         -2.45730       -4.27330        0.97040
