44
ZINC71789555
C         -0.14680        1.39410        0.11720
O         -0.08880       -0.03300        0.07170
N          0.60290       -0.61630        1.16090
C          0.72580       -1.91000        1.23620
C          1.54030       -2.51470        2.31460
C          2.26730       -1.81000        3.37780
C          2.85700       -2.76300        4.11780
O          2.55580       -3.96550        3.60410
C          1.76560       -3.83940        2.52970
C          0.05040       -2.77750        0.24260
O          0.06450       -3.98460        0.38080
N         -0.57950       -2.22750       -0.81450
C         -1.35880       -3.07180       -1.72330
H         -1.72050       -3.98100       -1.24310
C         -2.44580       -2.31150       -2.46470
H         -3.40430       -2.82150       -2.56150
N         -1.49910       -2.43810       -3.61300
C         -0.66490       -3.32870       -3.04240
O          0.24780       -4.03260       -3.42020
C         -1.51870       -1.66690       -4.79410
C         -2.14850       -0.50250       -4.82440
C         -2.94100        0.15470       -3.74170
S         -2.55880       -0.53060       -2.08340
C         -2.05310        0.25990       -6.12070
O         -2.67660        1.53680       -5.96940
C         -2.76950        2.30600       -7.07050
O         -2.33310        1.90420       -8.13090
N         -3.34650        3.52170       -6.99650
C         -0.83430       -2.15950       -6.00050
O         -0.93120       -1.54380       -7.05330
O         -0.16850       -3.18480       -5.95050
H          0.86500        1.79930        0.10970
H         -0.69250        1.76340       -0.75110
H         -0.65730        1.70820        1.02760
H          2.31780       -0.74240        3.53300
H          3.47450       -2.58950        4.98670
H          1.37580       -4.65130        1.93360
H         -0.51680       -1.27270       -0.97340
H         -2.72680        1.22340       -3.74390
H         -4.00270        0.00660       -3.93920
H         -1.00460        0.39670       -6.38540
H         -2.55690       -0.29930       -6.90910
H         -3.69490        3.84250       -6.14990
H         -3.41350        4.07590       -7.78970
