42
ZINC00020220
C          0.00850        1.39420        0.45460
C          1.19900        2.08920        0.22670
C          2.42770        1.40470        0.20380
C          2.44260        0.03030        0.41070
C          1.25430       -0.64550        0.63580
C          0.03860        0.04360        0.65580
F         -1.11200       -0.62910        0.87660
N          1.27130       -2.02250        0.84290
C          1.15860       -2.95870       -0.28630
C          2.29210       -3.98440       -0.18180
N          2.25350       -4.62210        1.14030
C          2.52490       -3.62570        2.18420
C          1.40860       -2.58220        2.19640
N          3.60290        2.09060       -0.02200
C          3.64280        3.41250       -0.22710
C          2.50160        4.19150       -0.22700
C          1.19850        3.54500        0.00600
O          0.16330        4.18820        0.01570
C          2.58620        5.63770       -0.45460
O          3.67430        6.16440       -0.64680
O          1.56860        6.31810       -0.45240
C          4.86100        1.34020       -0.03750
C          6.16240        2.14130        0.03910
C          5.74960        1.47640       -1.27560
H         -0.93240        1.92410        0.47590
H          3.37800       -0.50950        0.39560
H          0.19690       -3.46990       -0.24360
H          1.24480       -2.41200       -1.22530
H          2.16840       -4.74280       -0.95480
H          3.25020       -3.48210       -0.31520
H          1.34110       -5.02560        1.29130
H          2.57270       -4.11980        3.15460
H          3.47600       -3.13430        1.97920
H          1.66000       -1.78680        2.89790
H          0.47260       -3.05480        2.49400
H          4.59840        3.88600       -0.39790
H          4.83640        0.37080        0.46010
H          6.08240        3.22660        0.10100
H          6.99410        1.69890        0.58730
H          6.30980        0.59660       -1.59230
H          5.39800        2.12420       -2.07860
H          2.95140       -5.34960        1.18200
