48
ZINC04099034
C          1.15420        1.17570       -3.98340
N          1.10500       -0.27600       -3.76430
C          2.31690       -0.89400       -4.31690
C          2.21460       -2.41770       -4.19190
N          1.94960       -2.75330       -2.78430
C          0.84960       -2.05580       -2.10060
C          1.01630       -0.54920       -2.32430
C          2.71860       -3.70420       -2.11780
C          3.85840       -3.31050       -1.43480
C          4.62690       -4.25750       -0.76930
C          4.23200       -5.60760       -0.80070
C          3.08090       -5.98980       -1.49360
C          2.33160       -5.04650       -2.13840
F          1.21470       -5.41420       -2.80350
C          5.05580       -6.60060       -0.09120
O          4.76030       -7.78300       -0.08600
C          6.25210       -6.10590        0.61180
C          6.53940       -4.75480        0.57240
N          5.76540       -3.88020       -0.08490
C          6.12590       -2.52740       -0.07700
C          5.65340       -1.68760        0.92320
C          6.01060       -0.35370        0.92940
C          6.83940        0.14680       -0.06090
C          7.31170       -0.68880       -1.05920
C          6.96120       -2.02450       -1.06610
F          7.18730        1.45230       -0.05320
C          7.12350       -7.03200        1.34200
O          8.11520       -6.61020        1.92270
O          6.85940       -8.22700        1.37080
H          2.02790        1.58970       -3.48000
H          1.22000        1.37990       -5.05210
H          0.25130        1.63480       -3.58080
H          2.41730       -0.62150       -5.36750
H          3.18850       -0.54180       -3.76510
H          1.39830       -2.78240       -4.81530
H          3.15250       -2.87490       -4.50710
H         -0.10460       -2.38390       -2.51290
H          0.88500       -2.27370       -1.03320
H          1.92720       -0.20730       -1.83280
H          0.15830       -0.02250       -1.90660
H          4.14870       -2.27030       -1.42020
H          2.78110       -7.02710       -1.51540
H          7.41640       -4.39190        1.08780
H          5.00680       -2.07750        1.69540
H          5.64310        0.29970        1.70680
H          7.95790       -0.29650       -1.83050
H          7.33300       -2.67670       -1.84250
H          0.29430       -0.65760       -4.22830
