46
ZINC00538273
C         -0.01870        1.52580        0.01040
C          0.00210       -0.00410        0.00200
H         -1.02030       -0.38190        0.00980
C          0.72010       -0.49850       -1.25650
O          0.85110       -1.92330       -1.18030
C          1.47370       -2.40300       -0.06770
C          1.41650       -1.68280        1.12420
N          0.71480       -0.49200        1.19250
C          0.66090        0.23890        2.31660
C          1.27720       -0.15080        3.48820
C          2.02630       -1.41880        3.51180
O          2.58010       -1.81220        4.52360
C          2.07730       -2.19010        2.25690
C          2.76740       -3.40340        2.18930
C          2.80700       -4.10200        1.01540
C          2.16270       -3.60630       -0.11970
N          2.21120       -4.32660       -1.31470
C          1.18310       -5.32840       -1.63640
C          1.88310       -6.62900       -2.04420
N          2.82510       -6.35500       -3.13670
C          3.89210       -5.46320       -2.66510
C          3.28860       -4.10080       -2.29070
C          3.41440       -7.61790       -3.60100
F          3.47240       -5.27610        0.95290
C          1.18820        0.68420        4.69010
O          0.56340        1.73640        4.65950
O          1.73870        0.32910        5.72420
H          1.00390        1.90310        0.00270
H         -0.54590        1.88680       -0.87260
H         -0.52890        1.87730        0.90720
H          0.13790       -0.23150       -2.13840
H          1.70860       -0.04310       -1.31630
H          0.11340        1.16980        2.30380
H          3.26970       -3.78870        3.06440
H          0.55930       -5.50720       -0.76070
H          0.56750       -4.96960       -2.46120
H          2.42540       -7.03330       -1.18950
H          1.13950       -7.35260       -2.37830
H          4.37360       -5.90280       -1.79160
H          4.62890       -5.32780       -3.45690
H          2.88190       -3.62020       -3.18040
H          4.05730       -3.46770       -1.84770
H          2.62410       -8.27780       -3.95880
H          4.11400       -7.41590       -4.41210
H          3.94250       -8.09720       -2.77660
H          2.33380       -5.91510       -3.90040
