53
ZINC03826253
C         -0.04150        1.50340       -0.04790
O          0.01970        0.07580       -0.03330
C          0.62440       -0.52750       -1.09280
C         -0.12190       -0.88360       -2.21450
C          0.52340       -1.50560       -3.29830
C          1.89580       -1.76300       -3.24920
C          2.61570       -1.40890       -2.14260
C          1.98860       -0.78540       -1.06260
N          2.73740       -0.42350        0.05870
C          3.40830        0.87760        0.26320
C          3.54780        0.99100        1.79200
H          2.58920        1.27800        2.22430
C          4.60670        1.98180        2.21110
C          6.00600        1.48950        1.83730
C          6.20330        0.10770        2.47290
N          5.24390       -0.81950        1.87180
C          3.88440       -0.45480        2.20270
H          3.65890       -0.64730        3.25160
C          2.98430       -1.27190        1.23550
F          3.94270       -1.65830       -2.09640
C         -0.27730       -1.87650       -4.47720
O          0.22980       -2.41800       -5.44420
C         -1.71680       -1.56630       -4.43870
C         -2.23800       -0.95180       -3.31580
N         -1.47820       -0.63010       -2.26290
C         -2.11190        0.01920       -1.11270
C         -3.62200        0.25650       -1.17890
C         -2.65570        1.43530       -1.31190
C         -2.58230       -1.90340       -5.57320
O         -3.77730       -1.64110       -5.53060
O         -2.11000       -2.44730       -6.56300
H          0.96930        1.91020       -0.07870
H         -0.59340        1.83450       -0.92760
H         -0.54720        1.85460        0.85170
H          2.38670       -2.24120       -4.08380
H          4.38980        0.87980       -0.21090
H          2.79360        1.68940       -0.12540
H          4.41960        2.93500        1.71660
H          4.55490        2.12450        3.29050
H          6.09290        1.41290        0.75340
H          6.75540        2.18220        2.22020
H          7.21830       -0.24140        2.28310
H          6.02880        0.17020        3.54700
H          5.35540       -0.80450        0.86910
H          2.04010       -1.51820        1.72120
H          3.49780       -2.18510        0.93480
H         -3.29340       -0.72420       -3.28730
H         -1.68230       -0.22290       -0.14060
H         -4.14390       -0.07040       -2.07820
H         -4.18610        0.17050       -0.25020
H         -2.58420        2.12490       -0.47070
H         -2.54190        1.88400       -2.29870
H          5.43170       -1.75180        2.20880
