48
ZINC03882891
C          1.15360        3.21440       -8.46510
C          0.36780        3.80920       -7.29480
H          1.06040        4.25150       -6.57870
C         -0.44010        2.70520       -6.60860
N         -1.22390        3.28620       -5.50970
C         -2.13960        4.32120       -6.00960
C         -1.33170        5.42520       -6.69570
H         -0.65840        5.88590       -5.97280
C         -2.28470        6.48460       -7.25290
C         -1.91920        2.29720       -4.81420
C         -1.67810        2.10950       -3.46080
C         -2.37190        1.12930       -2.76090
C         -3.30810        0.32870       -3.44200
C         -4.03030       -0.70810       -2.68820
O         -4.85500       -1.42610       -3.22700
C         -3.71590       -0.84220       -1.25580
C         -2.77400       -0.00250       -0.69750
N         -2.13580        0.93090       -1.41520
C         -1.15020        1.78100       -0.74280
C          0.14450        1.12000       -0.26560
C         -0.91580        1.54670        0.75160
C         -4.39400       -1.85410       -0.43440
O         -5.22230       -2.58890       -0.93620
C         -3.54470        0.52500       -4.80680
C         -2.85150        1.50540       -5.48540
F         -3.07620        1.69980       -6.80340
F         -4.44710       -0.24200       -5.45670
F         -0.77310        2.88300       -2.82210
H          0.46040        2.77310       -9.18130
H          1.72890        4.00090       -8.95360
H          1.83130        2.44540       -8.09430
H          0.23910        1.95070       -6.21160
H         -1.11340        2.24450       -7.33150
H         -2.83220        3.87890       -6.72560
H         -2.69940        4.74490       -5.17580
H         -2.95830        6.02340       -7.97520
H         -2.86580        6.91540       -6.43760
H         -1.70880        7.26960       -7.74300
H         -2.54410       -0.10100        0.35310
H         -1.08700        2.80630       -1.10740
H          0.26270        0.05250       -0.45150
H          1.05940        1.71020       -0.31650
H         -1.49510        0.75990        1.23490
H         -0.69860        2.41790        1.36960
N         -0.54870        4.84680       -7.80420
H         -1.18880        4.42730       -8.48860
H         -0.00240        5.58910       -8.25670
O         -4.09760       -1.96790        0.87590
