29
ZINC00001875
C         -0.01870        1.52580        0.01040
C          0.00210       -0.00410        0.00200
N         -1.37230       -0.51120        0.01240
C         -1.96350       -0.73390        1.19170
C         -3.25680       -1.21150        1.28790
C         -4.00850       -1.48350        0.05070
O         -5.15160       -1.90490        0.08190
C         -3.32070       -1.22430       -1.22590
C         -2.00330       -0.73320       -1.19450
C         -1.34250       -0.47950       -2.39100
C         -1.98060       -0.70300       -3.59770
C         -3.29410       -1.18530       -3.62540
C         -3.95810       -1.45350       -2.44690
O         -3.68200       -1.31460       -4.92840
C         -2.74830       -0.52380       -5.68710
O         -1.55450       -0.53490       -4.88280
C         -3.87030       -1.44390        2.59950
O         -3.23610       -1.21470        3.62110
O         -5.01660       -1.86710        2.67270
H          1.00390        1.90310        0.00270
H         -0.54590        1.88680       -0.87260
H         -0.52890        1.87730        0.90720
H          0.51230       -0.35560       -0.89480
H          0.52930       -0.36510        0.88510
H         -1.41180       -0.53430        2.09840
H         -0.32890       -0.10680       -2.37840
H         -4.97140       -1.82650       -2.46820
H         -2.55980       -0.98140       -6.65820
H         -3.11870        0.49420       -5.80810
