44
ZINC00001894
C         -0.01870        1.52580        0.01040
C          0.00210       -0.00410        0.00200
N         -1.37230       -0.51120        0.01240
C         -1.96400       -0.73400        1.19190
C         -3.25720       -1.21140        1.28750
C         -4.00900       -1.48340        0.05010
O         -5.15210       -1.90470        0.08140
C         -3.32160       -1.22430       -1.22600
C         -2.00340       -0.73320       -1.19390
C         -1.34440       -0.48050       -2.39090
C         -1.99110       -0.70880       -3.59510
C         -3.30210       -1.19160       -3.61640
C         -3.95890       -1.45460       -2.44750
F         -3.91940       -1.40930       -4.79820
N         -1.32920       -0.45450       -4.79370
C         -1.40130        0.86920       -5.43150
C         -1.79200        0.67970       -6.90100
N         -0.85280       -0.25070       -7.54010
C         -0.96920       -1.57940       -6.92590
C         -0.53310       -1.50010       -5.45480
C         -1.16080       -0.34710       -8.97320
C         -3.87080       -1.44390        2.59890
O         -3.23680       -1.21490        3.62060
O         -5.01720       -1.86710        2.67180
H          1.00390        1.90310        0.00270
H         -0.54590        1.88680       -0.87260
H         -0.52890        1.87730        0.90720
H          0.51230       -0.35560       -0.89480
H          0.52930       -0.36510        0.88510
H         -1.41260       -0.53460        2.09890
H         -0.33120       -0.10690       -2.38280
H         -4.97200       -1.82820       -2.46780
H         -2.15260        1.47780       -4.92830
H         -0.42900        1.35820       -5.37120
H         -2.80190        0.27380       -6.95910
H         -1.75650        1.64110       -7.41340
H         -2.00400       -1.91690       -6.98320
H         -0.32740       -2.28260       -7.45660
H          0.52530       -1.24630       -5.39670
H         -0.71010       -2.45870       -4.96700
H         -1.06700        0.63720       -9.43200
H         -0.46420       -1.03750       -9.44890
H         -2.17960       -0.71240       -9.10220
H          0.08930        0.09110       -7.42330
