62
ZINC03913937
C         -0.74160       -0.34490       -0.27280
C         -0.23080        0.86260        0.51590
N          0.60800        0.40210        1.62520
C          0.00310        0.10990        2.92500
C          0.67110       -1.10320        3.56600
N          2.12490       -0.93890        3.58400
C          2.75320       -0.35130        2.54610
O          3.96480       -0.30900        2.50470
C          1.93430        0.24310        1.44420
O          2.45800        0.58100        0.40290
C          2.83770       -1.37570        4.64120
O          4.05170       -1.32090        4.62000
N          2.20430       -1.87320        5.72180
C          2.97070       -2.24330        6.91420
H          3.80530       -1.55330        7.03840
C          3.49810       -3.64630        6.75690
C          2.70670       -4.62150        6.17940
C          3.19040       -5.90830        6.03510
C          4.46580       -6.21990        6.46790
C          5.25760       -5.24450        7.04460
C          4.77540       -3.95660        7.18490
C          2.07790       -2.17530        8.12630
O          0.91590       -1.84960        8.00610
N          2.57090       -2.47630        9.34410
C          1.70290       -2.41010       10.52250
H          0.64970       -2.54520       10.27650
C          2.17410       -3.29510       11.67110
H          1.40860       -3.87640       12.18510
N          2.59140       -2.01880       12.28900
C          1.96480       -1.20510       11.39170
O          1.72150       -0.01900       11.32170
C          4.03760       -1.82410       12.43890
H          4.41360       -1.27420       11.57610
C          4.79270       -3.17790       12.54530
S          3.75600       -4.17520       11.35170
C          6.24060       -3.05360       12.06670
C          4.72020       -3.75270       13.96130
C          4.29860       -1.01910       13.68590
O          3.38680       -0.78020       14.45920
O          5.42150       -0.60680       13.92140
H         -1.32860       -0.98630        0.38460
H         -1.36570       -0.00220       -1.09810
H          0.10560       -0.90640       -0.66660
H          0.35620        1.50400       -0.14150
H         -1.07800        1.42410        0.90970
H          0.12210        0.97350        3.57930
H         -1.05910       -0.09420        2.78960
H          0.30920       -1.21490        4.58800
H          0.41730       -1.99670        2.99560
H          1.24100       -1.98620        5.71000
H          1.71030       -4.37800        5.84120
H          2.57190       -6.67040        5.58450
H          4.84350       -7.22550        6.35580
H          6.25380       -5.48800        7.38300
H          5.39530       -3.19360        7.63210
H          3.50030       -2.73670        9.44030
H          6.76370       -2.31870       12.67860
H          6.73690       -4.02000       12.15580
H          6.25270       -2.73370       11.02480
H          3.67770       -3.91760       14.23360
H          5.25920       -4.69940       13.99720
H          5.17200       -3.05060       14.66200
