53
ZINC66322939
C         -0.01840        1.50280        0.01030
C          0.00210       -0.00410        0.00200
C         -1.05920       -0.79470        0.00260
O         -0.62910       -2.08010       -0.00720
C          0.71350       -2.06670       -0.01380
O          1.43980       -3.04160       -0.02320
O          1.11060       -0.78400       -0.01320
C         -2.49720       -0.34390        0.01310
N         -3.14620       -0.74780       -1.24130
C         -3.23180       -2.21080       -1.34240
C         -3.74550       -2.59420       -2.73430
N         -5.00700       -1.87890       -2.98010
C         -5.03510       -0.42410       -2.76580
C         -4.47070       -0.12620       -1.37270
C         -6.14440       -2.56100       -3.40490
C         -7.03160       -3.06820       -2.46860
C         -8.16720       -3.74860       -2.89320
C         -8.39750       -3.91150       -4.26740
C         -7.49430       -3.39540       -5.20140
C         -6.38500       -2.72360       -4.77150
F         -5.51380       -2.21870       -5.67220
C         -9.60400       -4.63420       -4.70370
O         -9.85380       -4.80530       -5.88420
C        -10.49350       -5.14030       -3.64610
C        -10.16300       -4.91920       -2.32190
N         -9.05480       -4.25640       -1.94800
C         -9.26190       -4.35190       -0.48310
H         -9.44680       -3.39400        0.00310
C        -10.53270       -5.10960       -0.86830
C         -8.21670       -5.20300        0.24080
C        -11.71680       -5.87070       -3.99280
O        -12.45180       -6.28880       -3.10770
O        -12.00310       -6.06240       -5.16750
H          1.00420        1.88010        0.00260
H         -0.54550        1.86390       -0.87280
H         -0.52860        1.85430        0.90710
H         -3.01570       -0.80310        0.85480
H         -2.53710        0.74110        0.10990
H         -2.24400       -2.64460       -1.18700
H         -3.91850       -2.58820       -0.58460
H         -3.01050       -2.30940       -3.48710
H         -3.91990       -3.66930       -2.77690
H         -4.42400        0.06930       -3.52170
H         -6.06210       -0.06440       -2.82940
H         -5.14010       -0.53260       -0.61450
H         -4.38130        0.95190       -1.23930
H         -6.84150       -2.93570       -1.41380
H         -7.67510       -3.52320       -6.25840
H        -11.44870       -4.59190       -0.58390
H        -10.52450       -6.15310       -0.55350
H         -7.22700       -4.77420        0.08380
H         -8.43940       -5.22220        1.30760
H         -8.23920       -6.21900       -0.15340
