30
ZINC00056659
C         -0.01840        1.50280        0.01030
C          0.00210       -0.00410        0.00200
C         -1.07990       -0.80760        0.00260
N         -0.66280       -2.09840       -0.00630
O          0.75400       -2.10170       -0.01280
C          1.15930       -0.81570       -0.01390
N          2.40500       -0.39320       -0.02470
S          3.64960       -1.48550       -0.04290
O          3.60430       -2.17340        1.19970
O          3.57860       -2.16130       -1.29080
C          5.15130       -0.56390       -0.05390
C          5.72390       -0.19240       -1.25650
C          6.90090        0.52990       -1.26880
C          7.50960        0.88330       -0.07120
C          6.93170        0.50850        1.13510
C          5.75160       -0.20890        1.14020
N          8.70030        1.61340       -0.08000
C         -2.51510       -0.34830        0.01250
H          1.00420        1.88010        0.00260
H         -0.54550        1.86390       -0.87280
H         -0.52860        1.85430        0.90710
H          5.25030       -0.46780       -2.18730
H          7.34780        0.81950       -2.20840
H          7.40260        0.78130        2.06800
H          5.29950       -0.49690        2.07780
H          9.10310        1.87430       -0.92290
H          9.12440        1.85960        0.75690
H         -2.86630       -0.23140       -1.01270
H         -3.12990       -1.08820        0.52500
H         -2.58730        0.60700        0.53240
