126
azithromycin_85537026.pdb
C         -3.25300        0.39500        1.12000
C         -3.33900       -1.11200        0.87300
C         -2.64600       -1.45200       -0.44400
H         -3.08900       -0.84500       -1.24600
C         -2.87100       -2.93100       -0.79700
C         -2.27000       -3.82700        0.26800
H         -2.99800       -3.84300        1.12200
C         -2.02000       -5.27100       -0.10100
H         -2.47300       -5.89200        0.71700
N         -0.58000       -5.61000       -0.06000
C          0.14000       -4.93900       -1.12800
C          1.60300       -4.61200       -0.85800
H          2.22800       -5.21500       -1.53100
C          1.84200       -3.12500       -1.13400
C          3.08200       -2.91800       -2.00400
C          3.04000       -1.53000       -2.64300
H          2.32300       -1.54300       -3.46400
C          2.63500       -0.46400       -1.62900
H          2.31800       -0.91900       -0.69800
C          1.48600        0.37000       -2.20500
H          1.09400       -0.12200       -3.09600
C          0.38200        0.50900       -1.15500
H          0.79200        0.36900       -0.15600
C         -0.69100       -0.51700       -1.39800
O         -1.04300       -0.77000       -2.53600
O         -1.25500       -1.16400       -0.37000
C         -0.23800        1.90600       -1.26200
O          1.97500        1.66300       -2.56700
C          1.29400        2.25300       -3.68200
H          0.23000        2.28600       -3.46300
C          1.83700        3.66500       -3.90600
C          1.14600        4.30200       -5.11000
C          1.23000        3.40200       -6.33700
H          0.49500        3.75700       -7.07800
C          0.96500        1.93300       -6.05700
H          1.43100        1.35100       -6.88100
O          1.54400        1.47500       -4.84700
C         -0.53200        1.62200       -6.09600
O          2.53100        3.54200       -6.93000
C         -0.30600        4.64100       -4.77300
O          1.82700        5.53700       -5.41100
C          1.81200        6.48400       -4.34200
C          3.82900        0.46000       -1.36000
O          4.33700       -1.21600       -3.16200
C          4.31300       -0.35600       -4.30300
H          3.75800        0.55100       -4.06300
C          5.74600        0.01100       -4.69500
H          6.31300       -0.89800       -4.89600
C          5.71500        0.88300       -5.95400
H          5.19100        1.81500       -5.74000
C          4.98300        0.12800       -7.06800
C          3.57900       -0.24300       -6.58400
H          3.01500        0.66500       -6.37400
O          3.67900       -1.02800       -5.39300
C          2.86200       -1.05000       -7.66800
N          7.08900        1.18000       -6.38100
C          7.75200       -0.06300       -6.79800
C          7.06000        2.12100       -7.50800
O          6.36400        0.73300       -3.62800
C          4.34700       -3.04100       -1.15000
O          3.12200       -3.90000       -3.04500
C          2.04500       -4.92400        0.56800
C         -0.47100       -7.07400       -0.23700
C         -2.64000       -5.76100       -1.39400
O         -1.07100       -3.24600        0.80100
C         -4.39500       -3.14100       -0.84900
O         -2.31700       -3.15800       -2.09000
H         -2.20700        0.69700        1.17100
H         -3.74400        0.92600        0.30300
H         -3.74800        0.63800        2.06000
H         -2.84800       -1.64200        1.68900
H         -4.38500       -1.41300        0.82100
H          0.10500       -5.57300       -2.03500
H         -0.36800       -4.00900       -1.39900
H          0.97500       -2.71100       -1.64200
H          1.99000       -2.61300       -0.17900
H         -0.78700        1.98800       -2.20000
H         -0.92000        2.06600       -0.42700
H          0.55200        2.65700       -1.23600
H          1.65000        4.27000       -3.01600
H          2.91200        3.61700       -4.08300
H         -0.92800        1.86400       -7.08200
H         -0.68800        0.56300       -5.89200
H         -1.04600        2.21700       -5.34100
H          2.66400        2.99900       -7.71900
H         -0.33100        5.34100       -3.93800
H         -0.78500        5.09400       -5.64100
H         -0.83800        3.73000       -4.49900
H          2.30000        6.05200       -3.46700
H          2.34500        7.38500       -4.64700
H          0.78100        6.73700       -4.09500
H          4.13400        0.93800       -2.29000
H          3.54200        1.22200       -0.63600
H          4.65800       -0.12500       -0.96200
H          4.90800        0.76300       -7.95000
H          5.53500       -0.77900       -7.31600
H          3.42700       -1.95900       -7.87800
H          1.86300       -1.31500       -7.32300
H          2.78700       -0.45200       -8.57600
H          7.77400       -0.76200       -5.96100
H          7.20200       -0.50700       -7.62700
H          8.77100        0.15700       -7.11400
H          6.59700        3.05500       -7.19000
H          8.07800        2.31700       -7.84500
H          6.48300        1.69000       -8.32600
H          6.41300        0.24100       -2.79700
H          4.38600       -4.03200       -0.69900
H          5.22500       -2.89200       -1.77800
H          4.32900       -2.28500       -0.36500
H          3.92400       -3.86900       -3.58400
H          1.90700       -5.98700        0.76700
H          3.09700       -4.66600        0.68700
H          1.44700       -4.34300        1.26900
H         -0.78700       -7.34300       -1.24500
H          0.56400       -7.38200       -0.08700
H         -1.10900       -7.57700        0.49000
H         -2.16400       -5.26000       -2.23700
H         -2.49400       -6.83700       -1.48200
H         -3.70700       -5.53700       -1.39400
H         -1.20200       -2.38100        1.21200
H         -4.82500       -2.48900       -1.60900
H         -4.61000       -4.18000       -1.09700
H         -4.82800       -2.90200        0.12300
H         -2.71400       -2.61900       -2.78700
H         -0.26900       -5.37500        0.86800
H          7.59900        1.59100       -5.61300
