54
azlocillin_3830261.pdb
C         -0.01900        1.52700        0.01300
C          0.00100       -0.00300        0.00600
C          0.91700       -0.55800       -1.12300
H          1.76400        0.11500       -1.25900
N          1.41300       -1.89700       -0.79300
C          1.56300       -2.19500        0.63800
H          1.13000       -3.13400        0.98400
S          0.92200       -0.67900        1.46000
C          3.06600       -2.20100        0.42400
H          3.55600       -3.12200        0.74100
C          2.71100       -2.16800       -1.03200
O          3.35400       -2.32600       -2.04900
N          3.74200       -0.99400        0.90500
C          5.04400       -1.04200        1.25000
O          5.65600       -2.08600        1.16300
C          5.73900        0.20000        1.74500
H          5.70000        0.97000        0.97400
C          5.05100        0.69900        2.98900
C          5.32000        0.11000        4.21100
C          4.68900        0.56800        5.35200
C          3.78900        1.61400        5.27300
C          3.52100        2.20400        4.05100
C          4.15600        1.74900        2.91000
N          7.13700       -0.11200        2.05200
C          8.06800        0.86200        2.02000
O          7.76600        1.97900        1.64900
N          9.33400        0.59700        2.40000
C          9.85500       -0.72900        2.76200
C         11.33300       -0.46400        3.10800
N         11.48700        0.98500        2.90500
C         10.31800        1.50000        2.50200
O         10.16400        2.68000        2.25600
C          0.13100       -0.62700       -2.40700
O          0.11600        0.32900       -3.16500
O         -0.48900       -1.63800       -2.68900
C         -1.41400       -0.57900       -0.08200
H          1.00300        1.90400        0.00500
H         -0.54700        1.88800       -0.87000
H         -0.52900        1.87900        0.91000
H          3.25300       -0.15900        0.97500
H          6.02300       -0.70800        4.27300
H          4.89800        0.10700        6.30700
H          3.29600        1.97200        6.16400
H          2.81800        3.02100        3.98900
H          3.94900        2.21200        1.95700
H          7.39300       -1.02000        2.27800
H          9.32500       -1.12600        3.62700
H          9.77700       -1.41400        1.91700
H         11.53600       -0.72800        4.14600
H         11.98900       -1.01600        2.43600
H         12.30700        1.48700        3.03700
H         -1.88600       -0.24500       -1.00600
H         -1.36400       -1.66800       -0.07300
H         -1.99900       -0.23500        0.77100
