70
cefoperazone_3830432.pdb
C         -4.97600       -3.54200        0.70400
C         -4.45900       -3.95400        2.08400
N         -2.99800       -3.84700        2.11100
C         -2.17500       -4.99700        1.73500
C         -0.93800       -4.54200        0.96700
N         -0.23300       -3.49200        1.70400
C         -0.92900       -2.55900        2.38400
O         -0.35700       -1.62500        2.90700
C         -2.41600       -2.69100        2.48700
O         -3.08800       -1.77000        2.90200
C          1.11400       -3.45800        1.70200
O          1.69900       -2.54200        2.24700
N          1.81200       -4.43800        1.09600
C          3.27300       -4.46800        1.19800
H          3.57600       -4.10800        2.18200
C          3.87000       -3.58300        0.13400
C          3.32600       -3.57000       -1.13700
C          3.86700       -2.75600       -2.11300
C          4.96400       -1.96000       -1.82000
C          5.51200       -1.97900       -0.54600
C          4.96300       -2.79100        0.42800
O          5.50200       -1.16200       -2.78000
C          3.76100       -5.88100        1.00900
O          2.96700       -6.77500        0.80800
N          5.08100       -6.15100        1.06200
C          5.55500       -7.52500        0.87800
H          4.86600       -8.13000        0.29000
C          6.99300       -7.60300        0.39300
H          7.19900       -8.35100       -0.37400
N          7.25900       -8.00100        1.80700
C          5.98000       -8.18800        2.16900
O          5.41000       -8.67800        3.12100
C          8.51000       -7.97300        2.45700
C          9.49600       -7.23100        1.98000
C          9.51500       -6.38900        0.74600
S          7.83400       -5.99900        0.16700
C         10.76800       -7.23600        2.78900
S         11.80200       -8.63100        2.27900
C         13.18000       -8.39900        3.35300
N         13.32300       -7.44400        4.24600
N         14.44400       -7.56600        4.85900
N         15.09000       -8.58800        4.41300
N         14.28800       -9.17400        3.41800
C         14.58900      -10.36500        2.62100
C          8.72100       -8.77700        3.67400
O          7.76700       -9.17600        4.31200
H         -4.68300       -2.51200        0.49900
H         -4.54900       -4.19800       -0.05500
H         -6.06200       -3.62200        0.68400
H         -4.75200       -4.98400        2.28800
H         -4.88600       -3.29800        2.84200
H         -1.86500       -5.52600        2.63500
H         -2.76100       -5.66900        1.10700
H         -1.24000       -4.15600       -0.00700
H         -0.27000       -5.39100        0.82600
H          1.34700       -5.12400        0.59200
H          2.47400       -4.19400       -1.36600
H          3.43900       -2.74300       -3.10500
H          6.36600       -1.36000       -0.31500
H          5.38900       -2.80600        1.42100
H          6.19800       -1.58600       -3.30000
H          5.71600       -5.43600        1.22300
H         10.04700       -6.92400       -0.04100
H         10.04100       -5.45900        0.96100
H         11.30700       -6.30300        2.62200
H         10.52600       -7.33100        3.84700
H         15.11700      -10.07200        1.71300
H         15.21400      -11.04300        3.20200
H         13.65900      -10.86800        2.35300
O          9.97300       -9.06900        4.08000
