32
chloramphenicol_113382.pdb
C          1.85200       -0.14000       -1.74800
C          2.52900       -0.53100       -2.88800
C          3.39000        0.34900       -3.51600
C          3.57100        1.62100       -3.00700
C          2.89000        2.01400       -1.87000
C          2.02800        1.13400       -1.24200
C          1.28600        1.56200       -0.00200
H          1.18600        2.64700        0.00500
C          2.06400        1.11400        1.23800
H          3.01800        1.63900        1.27700
C          1.25100        1.43700        2.49300
O         -0.04500        0.84400        2.38800
N          2.30300       -0.33000        1.16900
C          3.34600       -0.87200        1.82700
O          4.08800       -0.16500        2.47600
C          3.59200       -2.35700        1.75600
C          4.96000       -2.79200        2.84800
C          2.10700       -3.23800        2.27400
O         -0.01100        0.96300        0.00700
N          4.12000       -0.07200       -4.73300
O          4.87900        0.70300       -5.28600
O          3.96100       -1.19300       -5.18200
H          1.18200       -0.82900       -1.25500
H          2.38800       -1.52500       -3.28500
H          4.24400        2.30900       -3.49700
H          3.03100        3.00800       -1.47200
H          1.76300        1.03900        3.36900
H          1.14900        2.51800        2.59200
H         -0.61500        1.00800        3.15100
H          1.71000       -0.89500        0.65000
H          3.84200       -2.63600        0.73200
H          0.00200       -0.00400        0.00200
