119
erythromycin_85534336.pdb
C         -0.27500        2.04700       -2.18300
C         -0.04700        0.69700       -1.50200
C         -1.38600        0.13700       -1.01700
H         -1.88000        0.86600       -0.37600
C         -1.12800       -1.14800       -0.21100
C         -2.20100       -1.28300        0.85400
H         -3.03000       -0.60000        0.60900
C         -2.77900       -2.68000        1.05400
H         -2.79900       -3.27100        0.15700
C         -4.18900       -2.51500        1.58100
O         -4.37500       -1.66800        2.43700
C         -5.36000       -3.32100        1.11000
H         -5.89300       -3.63800        2.04600
C         -6.35800       -2.48200        0.33900
C         -6.09600       -2.31900       -1.15100
C         -6.89200       -1.10000       -1.64600
H         -6.75100       -0.28100       -0.94000
C         -6.43500       -0.66400       -3.03600
H         -5.87000       -1.44800       -3.53000
C         -5.59500        0.61200       -2.93000
H         -5.51200        0.91000       -1.88400
C         -4.20000        0.38200       -3.50900
H         -4.08200       -0.66100       -3.80500
C         -3.16000        0.73500       -2.47600
O         -3.17300        1.82400       -1.95400
O         -2.21700       -0.15900       -2.13900
C         -4.00600        1.27200       -4.74100
O         -6.24400        1.65500       -3.66400
C         -6.00600        2.96800       -3.14400
H         -4.93300        3.13200       -3.08500
C         -6.65200        3.99700       -4.07400
C         -6.43800        5.40400       -3.52000
C         -6.89400        5.50500       -2.07000
H         -6.46900        6.42500       -1.63600
C         -6.48800        4.32800       -1.20100
H         -7.18000        4.30500       -0.33300
O         -6.60200        3.07600       -1.85600
C         -5.08100        4.51700       -0.63300
O         -8.32300        5.64300       -2.03900
C         -4.97300        5.81700       -3.66800
O         -7.23300        6.31600       -4.30600
C         -6.89700        6.33100       -5.69400
C         -7.67700       -0.36400       -3.89200
O         -8.28200       -1.44000       -1.69100
C         -9.11500       -0.58400       -0.90700
H         -8.92500        0.45500       -1.17600
C        -10.58500       -0.91900       -1.17200
H        -10.76600       -1.96900       -0.94100
C        -11.46900       -0.03900       -0.28300
H        -11.32500        1.00800       -0.54800
C        -11.07900       -0.25600        1.18200
C         -9.59000        0.05300        1.35600
H         -9.40600        1.10100        1.11600
O         -8.82600       -0.77700        0.47900
C         -9.17800       -0.21900        2.80400
N        -12.87900       -0.40500       -0.47700
C        -13.10600       -1.76600        0.02700
C        -13.73500        0.53800        0.25500
O        -10.89100       -0.67300       -2.54600
C         -4.61700       -2.09900       -1.44600
O         -6.56500       -3.47000       -1.86300
C         -4.97300       -4.61600        0.41700
C         -1.95600       -3.41300        2.12700
O         -1.65500       -0.83900        2.11200
C         -1.05300       -2.32500       -1.17600
O          0.15100       -1.00700        0.43400
H          0.68000        2.44600       -2.52800
H         -0.94300        1.91700       -3.03400
H         -0.72200        2.74200       -1.47200
H          0.40100        0.00200       -2.21300
H          0.62200        0.82700       -0.65100
H         -7.36300       -2.91700        0.47100
H         -6.39900       -1.47800        0.79300
H         -4.11300        2.31800       -4.45400
H         -3.01100        1.10800       -5.15500
H         -4.75700        1.02300       -5.49100
H         -6.20000        3.92200       -5.06500
H         -7.72100        3.79300       -4.15300
H         -5.05300        5.42200       -0.02600
H         -4.81900        3.65800       -0.01500
H         -4.36700        4.60700       -1.45200
H         -8.69200        5.71300       -1.14800
H         -4.69700        5.80400       -4.72300
H         -4.83600        6.82200       -3.26900
H         -4.34100        5.11900       -3.11900
H         -7.53900        7.04100       -6.21600
H         -5.85500        6.62900       -5.81300
H         -7.04100        5.33500       -6.11400
H         -8.22900        0.46600       -3.45200
H         -7.36600       -0.10000       -4.90300
H         -8.31500       -1.24700       -3.92700
H        -11.66600        0.40700        1.81700
H        -11.27000       -1.29300        1.46000
H         -9.36200       -1.26600        3.04400
H         -8.11800        0.00200        2.92800
H         -9.76200        0.41500        3.47300
H        -14.15200       -2.03700       -0.11600
H        -12.47100       -2.46500       -0.51600
H        -12.86300       -1.80400        1.08900
H        -13.60900        1.53900       -0.15800
H        -14.77700        0.23300        0.15900
H        -13.45300        0.54200        1.30800
H        -10.36300       -1.19400       -3.16600
H         -4.05100       -2.97900       -1.14100
H         -4.48000       -1.93200       -2.51400
H         -4.26200       -1.22900       -0.89400
H         -6.14300       -4.29800       -1.59400
H         -4.33600       -5.20500        1.07700
H         -5.87200       -5.18300        0.17800
H         -4.43200       -4.38800       -0.50200
H         -2.00400       -2.85800        3.06400
H         -2.36300       -4.41300        2.27600
H         -0.91900       -3.48800        1.80100
H         -2.27700       -0.89200        2.85100
H         -0.24100       -2.16400       -1.88400
H         -0.87100       -3.24300       -0.61600
H         -1.99500       -2.41100       -1.71700
H          0.88800       -0.88100       -0.17800
H        -13.10400       -0.36900       -1.46100
