30
flumequine_315.pdb
C         -0.01900        1.52600        0.01000
C          0.00200       -0.00400        0.00200
H         -1.01600       -0.38100        0.09900
C          0.60300       -0.49700       -1.31500
C          0.62100       -2.02900       -1.29600
C          1.40500       -2.48800       -0.09200
C          2.05700       -3.70200       -0.14200
C          2.79100       -4.16100        0.94300
C          2.87400       -3.39700        2.08800
C          2.21800       -2.16800        2.14900
C          1.46800       -1.70000        1.05400
N          0.81200       -0.48800        1.12900
C          0.87900        0.29400        2.22100
C          1.59000       -0.05400        3.35000
C          2.30400       -1.33900        3.36600
O          2.93900       -1.70200        4.34000
C          1.62900        0.83700        4.51400
O          1.02800        1.90300        4.48900
O          2.26400        0.51600        5.51000
F          3.42200       -5.35400        0.87800
H          1.00300        1.90300        0.04600
H         -0.50800        1.88800       -0.89400
H         -0.56600        1.87700        0.88500
H         -0.00600       -0.14800       -2.14900
H          1.62000       -0.12000       -1.41700
H         -0.40000       -2.40600       -1.23400
H          1.09500       -2.40000       -2.20500
H          1.99600       -4.30300       -1.03700
H          3.44500       -3.75000        2.93400
H          0.35400        1.23700        2.21300
